Version 4
SHEET 1 880 680
WIRE 160 -96 0 -96
WIRE 0 -80 0 -96
WIRE 160 -80 160 -96
WIRE 160 16 160 0
WIRE 224 16 160 16
WIRE 0 32 0 0
WIRE 112 96 80 96
WIRE 80 144 80 96
WIRE 160 176 160 112
WIRE 80 272 80 224
WIRE 160 272 160 256
FLAG 160 272 0
FLAG 80 272 0
FLAG 0 32 0
SYMBOL voltage 80 128 R0
WINDOW 123 0 0 Left 0
WINDOW 39 0 0 Left 0
SYMATTR InstName V1
SYMATTR Value .5V
SYMBOL voltage 160 160 R0
WINDOW 123 0 0 Left 0
WINDOW 39 0 0 Left 0
SYMATTR InstName V2
SYMATTR Value -1V
SYMBOL voltage 0 -96 R0
WINDOW 123 0 0 Left 0
WINDOW 39 0 0 Left 0
SYMATTR InstName V3
SYMATTR Value 1V
SYMBOL nmos 112 16 R0
SYMATTR InstName M1
SYMATTR Value CMOSNNMOS
SYMBOL current 160 -80 R0
WINDOW 123 0 0 Left 0
WINDOW 39 0 0 Left 0
SYMATTR InstName I1
SYMATTR Value 4mA
TEXT -34 296 Left 2 !.tran 10
TEXT 320 280 Left 2 !.include CMOSNNMOS.txt
